<?xml version="1.0" encoding="UTF-8"?>

<!-- generated on 2025-03-08 15:44:26 by Eclipse SUMO netconvert Version 1.18.0
<configuration xmlns:xsi="http://www.w3.org/2001/XMLSchema-instance" xsi:noNamespaceSchemaLocation="http://sumo.dlr.de/xsd/netconvertConfiguration.xsd">

    <input>
        <osm-files value="buc.osm"/>
    </input>

    <output>
        <output-file value="bucharest.net.xml"/>
    </output>

    <projection>
        <proj.utm value="true"/>
    </projection>

    <edge_removal>
        <keep-edges.by-vclass value="passenger"/>
        <remove-edges.by-vclass value="rail"/>
        <remove-edges.by-type value="waterway,unclassified,pedestrian"/>
        <remove-edges.isolated value="true"/>
    </edge_removal>

    <junctions>
        <no-internal-links value="true"/>
        <junctions.join value="true"/>
    </junctions>

    <report>
        <verbose value="true"/>
        <ignore-errors value="true"/>
    </report>

</configuration>
-->

<net version="1.16" junctionCornerDetail="5" limitTurnSpeed="5.50" xmlns:xsi="http://www.w3.org/2001/XMLSchema-instance" xsi:noNamespaceSchemaLocation="http://sumo.dlr.de/xsd/net_file.xsd">

    <location netOffset="-428439.51,-4919489.32" convBoundary="0.00,0.00,874.31,951.48" origBoundary="26.086093,44.366053,26.281586,44.481060" projParameter="+proj=utm +zone=35 +ellps=WGS84 +datum=WGS84 +units=m +no_defs"/>

    <type id="highway.living_street" priority="2" numLanes="1" speed="2.78" disallow="tram rail_urban rail rail_electric rail_fast ship" oneway="0"/>
    <type id="highway.primary" priority="12" numLanes="2" speed="27.78" disallow="tram rail_urban rail rail_electric rail_fast ship" oneway="0"/>
    <type id="highway.secondary" priority="11" numLanes="1" speed="27.78" disallow="tram rail_urban rail rail_electric rail_fast ship" oneway="0"/>

    <edge id="14134430#0" from="2351340236" to="134863944" priority="11" type="highway.secondary" spreadType="center" shape="275.69,427.88 268.14,424.39 259.20,420.91">
        <lane id="14134430#0_0" index="0" disallow="tram rail_urban rail rail_electric rail_fast ship" speed="13.89" length="17.91" shape="271.40,427.66 267.52,425.86 258.79,422.46"/>
        <lane id="14134430#0_1" index="1" disallow="tram rail_urban rail rail_electric rail_fast ship" speed="13.89" length="17.91" shape="272.75,424.75 268.77,422.91 259.95,419.48"/>
    </edge>
    <edge id="14134430#1" from="134863944" to="cluster_10961755188_2404241703_2488109209_4152925918_#1more" priority="11" type="highway.secondary" spreadType="center" shape="259.20,420.91 249.67,418.43 240.81,416.80">
        <lane id="14134430#1_0" index="0" disallow="tram rail_urban rail rail_electric rail_fast ship" speed="13.89" length="32.62" shape="258.61,422.41 249.33,420.00 247.53,419.66"/>
        <lane id="14134430#1_1" index="1" disallow="tram rail_urban rail rail_electric rail_fast ship" speed="13.89" length="32.62" shape="259.42,419.31 250.02,416.87 248.03,416.50"/>
    </edge>
    <edge id="14134621#0" from="682438" to="cluster_398335379_7238587688" priority="11" type="highway.secondary" spreadType="center" shape="16.16,380.80 23.78,380.54 30.59,380.94 31.47,381.04">
        <lane id="14134621#0_0" index="0" disallow="tram rail_urban rail rail_electric rail_fast ship" speed="13.89" length="18.27" shape="16.05,377.60 23.82,377.34 30.80,377.75 31.84,377.86"/>
        <lane id="14134621#0_1" index="1" disallow="tram rail_urban rail rail_electric rail_fast ship" speed="13.89" length="18.27" shape="16.16,380.80 23.78,380.54 30.59,380.94 31.47,381.04"/>
        <lane id="14134621#0_2" index="2" disallow="tram rail_urban rail rail_electric rail_fast ship" speed="13.89" length="18.27" shape="16.27,384.00 23.74,383.74 30.38,384.14 31.11,384.22"/>
    </edge>
    <edge id="14134621#2" from="cluster_398335379_7238587688" to="318820330" priority="11" type="highway.secondary" spreadType="center" shape="37.32,381.69 182.18,394.95">
        <lane id="14134621#2_0" index="0" disallow="tram rail_urban rail rail_electric rail_fast ship" speed="13.89" length="148.41" shape="37.61,378.50 182.33,391.75"/>
        <lane id="14134621#2_1" index="1" disallow="tram rail_urban rail rail_electric rail_fast ship" speed="13.89" length="148.41" shape="37.32,381.69 182.04,394.94"/>
        <lane id="14134621#2_2" index="2" disallow="tram rail_urban rail rail_electric rail_fast ship" speed="13.89" length="148.41" shape="37.02,384.88 181.75,398.13"/>
    </edge>
    <edge id="14134621#3" from="318820330" to="cluster_2488139573_255087436_4152925906_4197265104_#1more" priority="11" type="highway.secondary" spreadType="center" shape="182.18,394.95 208.23,397.85">
        <lane id="14134621#3_0" index="0" disallow="tram rail_urban rail rail_electric rail_fast ship" speed="13.89" length="26.86" shape="182.68,391.79 185.25,392.08"/>
        <lane id="14134621#3_1" index="1" disallow="tram rail_urban rail rail_electric rail_fast ship" speed="13.89" length="26.86" shape="182.32,394.97 185.76,395.35"/>
        <lane id="14134621#3_2" index="2" disallow="tram rail_urban rail rail_electric rail_fast ship" speed="13.89" length="26.86" shape="181.97,398.15 186.28,398.63"/>
    </edge>
    <edge id="153967343#1" from="cluster_21448876_2400144428_31404736_398401149_#2more" to="cluster_6225397219_6242330734" priority="12" type="highway.primary" spreadType="center" shape="223.21,179.98 190.25,182.60 162.15,184.83 156.55,186.65 151.79,190.63 147.17,198.44 141.76,205.40 134.39,211.05 125.78,213.96 114.34,214.93 105.03,213.10 97.76,209.12 92.24,204.74 85.04,197.09 80.43,193.55 75.69,191.63 71.06,191.36 10.67,195.46">
        <lane id="153967343#1_0" index="0" disallow="tram rail_urban rail rail_electric rail_fast ship" speed="13.89" length="251.47" shape="223.46,183.17 190.51,185.79 162.78,187.99 158.13,189.50 154.27,192.73 149.82,200.25 144.03,207.69 135.91,213.91 126.44,217.12 114.16,218.16 103.93,216.15 95.99,211.79 90.07,207.11 82.88,199.47 78.82,196.36 74.97,194.79 71.07,194.56 10.89,198.66"/>
        <lane id="153967343#1_1" index="1" disallow="tram rail_urban rail rail_electric rail_fast ship" speed="13.89" length="251.47" shape="223.21,179.98 190.25,182.60 162.15,184.83 156.55,186.65 151.79,190.63 147.17,198.44 141.76,205.40 134.39,211.05 125.78,213.96 114.34,214.93 105.03,213.10 97.76,209.12 92.24,204.74 85.04,197.09 80.43,193.55 75.69,191.63 71.06,191.36 10.67,195.46"/>
        <lane id="153967343#1_2" index="2" disallow="tram rail_urban rail rail_electric rail_fast ship" speed="13.89" length="251.47" shape="222.95,176.79 190.00,179.41 161.52,181.67 154.97,183.80 149.32,188.52 144.52,196.64 139.49,203.11 132.86,208.19 125.12,210.81 114.51,211.71 106.14,210.06 99.54,206.44 94.41,202.38 87.19,194.71 82.03,190.75 76.40,188.46 71.04,188.15 10.46,192.27"/>
    </edge>
    <edge id="153967343#3" from="cluster_6225397219_6242330734" to="254337787" priority="12" type="highway.primary" spreadType="center" shape="8.34,195.63 1.19,196.11">
        <lane id="153967343#3_0" index="0" disallow="tram rail_urban rail rail_electric rail_fast ship" speed="13.89" length="8.34" shape="8.56,198.83 1.40,199.30"/>
        <lane id="153967343#3_1" index="1" disallow="tram rail_urban rail rail_electric rail_fast ship" speed="13.89" length="8.34" shape="8.34,195.63 1.19,196.11"/>
        <lane id="153967343#3_2" index="2" disallow="tram rail_urban rail rail_electric rail_fast ship" speed="13.89" length="8.34" shape="8.13,192.44 0.98,192.92"/>
    </edge>
    <edge id="204909977#0" from="cluster_257684519_257684745_31404741_398396926_#1more" to="cluster_21448876_2400144428_31404736_398401149_#2more" priority="12" type="highway.primary" spreadType="center" shape="244.04,81.48 241.54,147.54">
        <lane id="204909977#0_0" index="0" disallow="tram rail_urban rail rail_electric rail_fast ship" speed="13.89" length="99.13" shape="256.83,81.97 254.33,148.02"/>
        <lane id="204909977#0_1" index="1" disallow="tram rail_urban rail rail_electric rail_fast ship" speed="13.89" length="99.13" shape="253.64,81.84 251.13,147.90"/>
        <lane id="204909977#0_2" index="2" disallow="tram rail_urban rail rail_electric rail_fast ship" speed="13.89" length="99.13" shape="250.44,81.72 247.94,147.78"/>
        <lane id="204909977#0_3" index="3" disallow="tram rail_urban rail rail_electric rail_fast ship" speed="13.89" length="99.13" shape="247.24,81.60 244.74,147.66"/>
        <lane id="204909977#0_4" index="4" disallow="tram rail_urban rail rail_electric rail_fast ship" speed="13.89" length="99.13" shape="244.04,81.48 241.54,147.54"/>
        <lane id="204909977#0_5" index="5" disallow="tram rail_urban rail rail_electric rail_fast ship" speed="13.89" length="99.13" shape="240.84,81.36 238.34,147.42"/>
        <lane id="204909977#0_6" index="6" disallow="tram rail_urban rail rail_electric rail_fast ship" speed="13.89" length="99.13" shape="237.65,81.24 235.15,147.30"/>
        <lane id="204909977#0_7" index="7" disallow="tram rail_urban rail rail_electric rail_fast ship" speed="13.89" length="99.13" shape="234.45,81.12 231.95,147.18"/>
        <lane id="204909977#0_8" index="8" disallow="tram rail_urban rail rail_electric rail_fast ship" speed="13.89" length="99.13" shape="231.25,81.00 228.75,147.06"/>
    </edge>
    <edge id="204909978" from="6908633254" to="581512" priority="12" type="highway.primary" spreadType="center" shape="186.25,418.56 113.67,432.50 70.51,440.78">
        <lane id="204909978_0" index="0" disallow="tram rail_urban rail rail_electric rail_fast ship" speed="13.89" length="117.86" shape="183.16,424.04 114.57,437.21 71.41,445.50"/>
        <lane id="204909978_1" index="1" disallow="tram rail_urban rail rail_electric rail_fast ship" speed="13.89" length="117.86" shape="182.55,420.90 113.97,434.07 70.81,442.35"/>
        <lane id="204909978_2" index="2" disallow="tram rail_urban rail rail_electric rail_fast ship" speed="13.89" length="117.86" shape="181.95,417.76 113.36,430.93 70.21,439.21"/>
        <lane id="204909978_3" index="3" disallow="tram rail_urban rail rail_electric rail_fast ship" speed="13.89" length="117.86" shape="181.35,414.62 112.76,427.78 69.60,436.07"/>
    </edge>
    <edge id="224757606" from="9840683849" to="257716111" priority="2" type="highway.living_street" spreadType="center" shape="310.85,447.62 305.97,454.91 259.29,527.55">
        <lane id="224757606_0" index="0" disallow="tram rail_urban rail rail_electric rail_fast ship" speed="13.89" length="95.12" shape="303.43,458.87 259.29,527.55"/>
    </edge>
    <edge id="226274205#0" from="cluster_257684519_257684745_31404741_398396926_#1more" to="6225649426" priority="12" type="highway.primary" spreadType="center" shape="233.90,67.53 234.60,44.95">
        <lane id="226274205#0_0" index="0" disallow="tram rail_urban rail rail_electric rail_fast ship" speed="13.89" length="28.52" shape="231.06,55.74 231.40,44.99"/>
        <lane id="226274205#0_1" index="1" disallow="tram rail_urban rail rail_electric rail_fast ship" speed="13.89" length="28.52" shape="234.26,55.87 234.59,45.09"/>
        <lane id="226274205#0_2" index="2" disallow="tram rail_urban rail rail_electric rail_fast ship" speed="13.89" length="28.52" shape="237.46,56.01 237.79,45.19"/>
    </edge>
    <edge id="226274205#1" from="6225649426" to="2583013725" priority="12" type="highway.primary" spreadType="center">
        <lane id="226274205#1_0" index="0" disallow="tram rail_urban rail rail_electric rail_fast ship" speed="13.89" length="44.72" shape="231.40,44.77 231.89,0.19"/>
        <lane id="226274205#1_1" index="1" disallow="tram rail_urban rail rail_electric rail_fast ship" speed="13.89" length="44.72" shape="234.60,44.81 235.09,0.23"/>
        <lane id="226274205#1_2" index="2" disallow="tram rail_urban rail rail_electric rail_fast ship" speed="13.89" length="44.72" shape="237.80,44.84 238.29,0.26"/>
    </edge>
    <edge id="228997079#0" from="1471286958" to="2383774917" priority="12" type="highway.primary" spreadType="center" shape="230.45,334.59 231.90,347.66 233.47,357.48 235.87,370.88">
        <lane id="228997079#0_0" index="0" disallow="tram rail_urban rail rail_electric rail_fast ship" speed="16.67" length="12.48" shape="237.91,364.15 238.99,370.15"/>
        <lane id="228997079#0_1" index="1" disallow="tram rail_urban rail rail_electric rail_fast ship" speed="16.67" length="12.48" shape="234.73,364.51 235.84,370.71"/>
        <lane id="228997079#0_2" index="2" disallow="tram rail_urban rail rail_electric rail_fast ship" speed="16.67" length="12.48" shape="231.54,364.87 232.69,371.28"/>
    </edge>
    <edge id="228997079#1" from="2383774917" to="cluster_10961755188_2404241703_2488109209_4152925918_#1more" priority="12" type="highway.primary" spreadType="center" shape="235.87,370.88 239.59,385.54">
        <lane id="228997079#1_0" index="0" disallow="tram rail_urban rail rail_electric rail_fast ship" speed="16.67" length="28.62" shape="239.01,370.26 242.70,384.75"/>
        <lane id="228997079#1_1" index="1" disallow="tram rail_urban rail rail_electric rail_fast ship" speed="16.67" length="28.62" shape="235.91,371.05 239.59,385.54"/>
        <lane id="228997079#1_2" index="2" disallow="tram rail_urban rail rail_electric rail_fast ship" speed="16.67" length="28.62" shape="232.81,371.84 236.49,386.33"/>
    </edge>
    <edge id="228997261#0" from="31404735" to="6225397218" priority="12" type="highway.primary" spreadType="center">
        <lane id="228997261#0_0" index="0" disallow="tram rail_urban rail rail_electric rail_fast ship" speed="8.33" length="6.99" shape="-0.25,175.06 6.56,174.52"/>
        <lane id="228997261#0_1" index="1" disallow="tram rail_urban rail rail_electric rail_fast ship" speed="8.33" length="6.99" shape="-0.00,178.25 6.82,177.71"/>
        <lane id="228997261#0_2" index="2" disallow="tram rail_urban rail rail_electric rail_fast ship" speed="8.33" length="6.99" shape="0.25,181.44 7.07,180.90"/>
    </edge>
    <edge id="228997261#1" from="6225397218" to="cluster_21448876_2400144428_31404736_398401149_#2more" priority="12" type="highway.primary" spreadType="center" shape="6.97,177.70 9.08,177.53 43.83,174.86 71.98,172.71 76.62,171.53 81.49,168.04 84.11,164.12 88.09,157.79 93.87,151.71 100.87,146.88 109.40,144.67 119.75,144.12 129.83,146.46 137.96,151.05 143.41,155.98 148.97,162.12 152.70,164.70 157.38,166.07 223.80,162.01">
        <lane id="228997261#1_0" index="0" disallow="tram rail_urban rail rail_electric rail_fast ship" speed="8.33" length="249.17" shape="6.86,174.49 8.84,174.34 43.59,171.67 71.47,169.54 75.25,168.58 79.15,165.77 81.42,162.38 85.55,155.81 91.78,149.27 99.52,143.93 108.91,141.49 120.04,140.90 131.01,143.45 139.84,148.44 145.67,153.71 151.10,159.70 154.09,161.77 157.75,162.84 221.53,158.94"/>
        <lane id="228997261#1_1" index="1" disallow="tram rail_urban rail rail_electric rail_fast ship" speed="8.33" length="249.17" shape="7.12,177.68 9.08,177.53 43.83,174.86 71.98,172.71 76.62,171.53 81.49,168.04 84.11,164.12 88.09,157.79 93.87,151.71 100.87,146.88 109.40,144.67 119.75,144.12 129.83,146.46 137.96,151.05 143.41,155.98 148.97,162.12 152.70,164.70 157.38,166.07 221.79,162.13"/>
        <lane id="228997261#1_2" index="2" disallow="tram rail_urban rail rail_electric rail_fast ship" speed="8.33" length="249.17" shape="7.37,180.87 9.33,180.72 44.08,178.05 72.50,175.88 77.99,174.49 83.83,170.30 86.79,165.86 90.63,159.76 95.96,154.16 102.22,149.84 109.89,147.85 119.47,147.34 128.66,149.48 136.07,153.66 141.14,158.25 146.85,164.54 151.30,167.63 157.02,169.30 222.04,165.32"/>
    </edge>
    <edge id="231106203#0" from="257715706" to="9840683849" priority="11" type="highway.secondary" spreadType="center" shape="407.46,503.60 348.15,469.22 324.93,455.89 310.85,447.62">
        <lane id="231106203#0_0" index="0" disallow="tram rail_urban rail rail_electric rail_fast ship" speed="13.89" length="111.66" shape="403.45,510.52 344.15,476.15 320.91,462.81 310.95,456.96"/>
        <lane id="231106203#0_1" index="1" disallow="tram rail_urban rail rail_electric rail_fast ship" speed="13.89" length="111.66" shape="405.06,507.75 345.75,473.38 322.52,460.04 312.57,454.20"/>
        <lane id="231106203#0_2" index="2" disallow="tram rail_urban rail rail_electric rail_fast ship" speed="13.89" length="111.66" shape="406.66,504.99 347.35,470.61 324.12,457.27 314.20,451.44"/>
        <lane id="231106203#0_3" index="3" disallow="tram rail_urban rail rail_electric rail_fast ship" speed="13.89" length="111.66" shape="408.27,502.22 348.95,467.84 325.73,454.51 315.82,448.68"/>
        <lane id="231106203#0_4" index="4" disallow="tram rail_urban rail rail_electric rail_fast ship" speed="13.89" length="111.66" shape="409.87,499.45 350.55,465.07 327.34,451.74 317.44,445.93"/>
        <lane id="231106203#0_5" index="5" disallow="tram rail_urban rail rail_electric rail_fast ship" speed="13.89" length="111.66" shape="411.48,496.68 352.15,462.29 328.94,448.97 319.06,443.17"/>
    </edge>
    <edge id="231106203#1" from="9840683849" to="2351340236" priority="11" type="highway.secondary" spreadType="center" shape="310.85,447.62 297.72,439.88 285.12,432.55 275.69,427.88">
        <lane id="231106203#1_0" index="0" disallow="tram rail_urban rail rail_electric rail_fast ship" speed="13.89" length="40.35" shape="301.70,451.52 293.67,446.78 281.33,439.60 275.71,436.82"/>
        <lane id="231106203#1_1" index="1" disallow="tram rail_urban rail rail_electric rail_fast ship" speed="13.89" length="40.35" shape="303.32,448.76 295.29,444.02 282.85,436.78 277.13,433.95"/>
        <lane id="231106203#1_2" index="2" disallow="tram rail_urban rail rail_electric rail_fast ship" speed="13.89" length="40.35" shape="304.95,446.00 296.91,441.26 284.37,433.96 278.55,431.08"/>
        <lane id="231106203#1_3" index="3" disallow="tram rail_urban rail rail_electric rail_fast ship" speed="13.89" length="40.35" shape="306.58,443.25 298.53,438.50 285.88,431.14 279.97,428.21"/>
        <lane id="231106203#1_4" index="4" disallow="tram rail_urban rail rail_electric rail_fast ship" speed="13.89" length="40.35" shape="308.20,440.49 300.14,435.74 287.40,428.32 281.39,425.35"/>
        <lane id="231106203#1_5" index="5" disallow="tram rail_urban rail rail_electric rail_fast ship" speed="13.89" length="40.35" shape="309.83,437.73 301.76,432.98 288.92,425.50 282.81,422.48"/>
    </edge>
    <edge id="236194081#0" from="cluster_2488139573_255087436_4152925906_4197265104_#1more" to="cluster_10961755188_2404241703_2488109209_4152925918_#1more" priority="11" type="highway.secondary" spreadType="center" shape="208.23,397.85 232.44,400.56">
        <lane id="236194081#0_0" index="0" disallow="pedestrian tram rail_urban rail rail_electric rail_fast ship" speed="13.89" length="31.06" shape="226.59,396.68 233.90,397.50"/>
        <lane id="236194081#0_1" index="1" disallow="pedestrian tram rail_urban rail rail_electric rail_fast ship" speed="13.89" length="31.06" shape="226.22,399.86 233.44,400.67"/>
        <lane id="236194081#0_2" index="2" disallow="pedestrian tram rail_urban rail rail_electric rail_fast ship" speed="13.89" length="31.06" shape="225.85,403.04 232.99,403.84"/>
    </edge>
    <edge id="236194087#0" from="1471286958" to="cluster_2488139573_255087436_4152925906_4197265104_#1more" priority="12" type="highway.primary" spreadType="center" shape="230.45,334.59 228.71,346.48 227.16,353.26 224.13,362.46 215.07,382.62">
        <lane id="236194087#0_0" index="0" disallow="tram rail_urban rail rail_electric rail_fast ship" speed="16.67" length="46.25" shape="227.30,363.05 227.12,363.62 217.99,383.93"/>
        <lane id="236194087#0_1" index="1" disallow="tram rail_urban rail rail_electric rail_fast ship" speed="16.67" length="46.25" shape="224.08,362.56 215.07,382.62"/>
        <lane id="236194087#0_2" index="2" disallow="tram rail_urban rail rail_electric rail_fast ship" speed="16.67" length="46.25" shape="220.80,362.07 212.15,381.31"/>
    </edge>
    <edge id="241211787#0" from="cluster_10961755188_2404241703_2488109209_4152925918_#1more" to="2404243453" priority="11" type="highway.secondary" spreadType="center" shape="242.85,401.90 247.69,402.66 250.49,403.65 252.76,404.52 263.33,409.44">
        <lane id="241211787#0_0" index="0" disallow="tram rail_urban rail rail_electric rail_fast ship" speed="13.89" length="26.19" shape="250.55,400.28 251.60,400.65 254.01,401.58 264.55,406.48"/>
        <lane id="241211787#0_1" index="1" disallow="tram rail_urban rail rail_electric rail_fast ship" speed="13.89" length="26.19" shape="250.05,403.49 250.49,403.65 252.76,404.52 263.20,409.38"/>
        <lane id="241211787#0_2" index="2" disallow="tram rail_urban rail rail_electric rail_fast ship" speed="13.89" length="26.19" shape="249.55,406.71 251.51,407.47 261.85,412.28"/>
    </edge>
    <edge id="241211787#1" from="2404243453" to="6252478721" priority="11" type="highway.secondary" spreadType="center" shape="263.33,409.44 289.84,423.81 352.36,459.30 437.24,509.36 463.44,524.82">
        <lane id="241211787#1_0" index="0" disallow="tram rail_urban rail rail_electric rail_fast ship" speed="13.89" length="231.01" shape="264.99,406.70 291.39,421.02 353.96,456.53 438.87,506.61 465.07,522.06"/>
        <lane id="241211787#1_1" index="1" disallow="tram rail_urban rail rail_electric rail_fast ship" speed="13.89" length="231.01" shape="263.46,409.51 289.84,423.81 352.36,459.30 437.24,509.36 463.44,524.82"/>
        <lane id="241211787#1_2" index="2" disallow="tram rail_urban rail rail_electric rail_fast ship" speed="13.89" length="231.01" shape="261.94,412.32 288.28,426.61 350.75,462.07 435.62,512.12 461.81,527.58"/>
    </edge>
    <edge id="241211905#0" from="cluster_10961755188_2404241703_2488109209_4152925918_#1more" to="cluster_2488139573_255087436_4152925906_4197265104_#1more" priority="11" type="highway.secondary" spreadType="center" shape="240.81,416.80 233.99,415.82 226.11,415.01 217.03,414.89">
        <lane id="241211905#0_0" index="0" disallow="pedestrian tram rail_urban rail rail_electric rail_fast ship" speed="13.89" length="46.99" shape="231.08,417.13 226.02,416.61 224.28,416.59"/>
        <lane id="241211905#0_1" index="1" disallow="pedestrian tram rail_urban rail rail_electric rail_fast ship" speed="13.89" length="46.99" shape="231.53,413.96 226.21,413.41 224.65,413.39"/>
    </edge>
    <edge id="241211914#0" from="cluster_10961755188_2404241703_2488109209_4152925918_#1more" to="4152925921" priority="12" type="highway.primary" spreadType="center" shape="240.81,416.80 239.65,419.68 237.63,424.72 235.34,431.79 233.51,439.47">
        <lane id="241211914#0_0" index="0" disallow="tram rail_urban rail rail_electric rail_fast ship" speed="16.67" length="41.13" shape="239.56,424.22 239.14,425.26 236.88,432.22 235.10,439.71"/>
        <lane id="241211914#0_1" index="1" disallow="tram rail_urban rail rail_electric rail_fast ship" speed="16.67" length="41.13" shape="236.59,423.02 236.13,424.17 233.80,431.35 231.99,438.97"/>
        <param key="ref" value="DN4"/>
    </edge>
    <edge id="241211914#1" from="4152925921" to="2160093488" priority="12" type="highway.primary" spreadType="center" shape="233.51,439.47 232.22,445.43 230.39,454.14 228.84,463.63 227.01,476.56 226.54,484.23 225.42,524.98 224.66,553.08 223.00,620.64 222.08,661.37 221.09,700.37 219.94,727.57 218.38,748.32 216.52,763.80 204.09,842.47 192.60,916.34 190.31,930.55">
        <lane id="241211914#1_0" index="0" disallow="tram rail_urban rail rail_electric rail_fast ship" speed="16.67" length="493.99" shape="235.05,439.95 233.78,445.76 231.96,454.43 230.42,463.87 228.60,476.72 228.14,484.30 227.02,525.02 226.26,553.12 224.60,620.68 223.68,661.40 222.69,700.42 221.54,727.66 219.97,748.48 218.11,764.02 205.67,842.72 194.18,916.59 191.92,930.66"/>
        <lane id="241211914#1_1" index="1" disallow="tram rail_urban rail rail_electric rail_fast ship" speed="16.67" length="493.99" shape="231.92,439.27 230.65,445.10 228.81,453.84 227.26,463.39 225.42,476.40 224.95,484.16 223.82,524.93 223.06,553.04 221.40,620.60 220.49,661.33 219.49,700.32 218.35,727.47 216.79,748.17 214.94,763.58 202.51,842.23 191.02,916.09 188.76,930.15"/>
        <param key="ref" value="DN4"/>
    </edge>
    <edge id="241211914#2" from="2160093488" to="2160093479" priority="12" type="highway.primary" spreadType="center">
        <lane id="241211914#2_0" index="0" disallow="tram rail_urban rail rail_electric rail_fast ship" speed="16.67" length="11.04" shape="191.87,930.95 190.20,941.57"/>
        <lane id="241211914#2_1" index="1" disallow="tram rail_urban rail rail_electric rail_fast ship" speed="16.67" length="11.04" shape="188.71,930.45 187.04,941.07"/>
        <param key="ref" value="DN4"/>
    </edge>
    <edge id="241211914#3" from="2160093479" to="2404233063" priority="12" type="highway.primary" spreadType="center">
        <lane id="241211914#3_0" index="0" disallow="tram rail_urban rail rail_electric rail_fast ship" speed="16.67" length="7.91" shape="190.15,941.87 188.80,949.53"/>
        <lane id="241211914#3_1" index="1" disallow="tram rail_urban rail rail_electric rail_fast ship" speed="16.67" length="7.91" shape="187.00,941.32 185.65,948.97"/>
        <param key="ref" value="DN4"/>
    </edge>
    <edge id="299384268#0" from="2583013717" to="6225649425" priority="12" type="highway.primary" spreadType="center">
        <lane id="299384268#0_0" index="0" disallow="tram rail_urban rail rail_electric rail_fast ship" speed="13.89" length="43.52" shape="269.48,0.02 269.33,42.30"/>
        <lane id="299384268#0_1" index="1" disallow="tram rail_urban rail rail_electric rail_fast ship" speed="13.89" length="43.52" shape="266.28,0.01 266.13,42.29"/>
        <lane id="299384268#0_2" index="2" disallow="tram rail_urban rail rail_electric rail_fast ship" speed="13.89" length="43.52" shape="263.08,0.00 262.93,42.28"/>
        <lane id="299384268#0_3" index="3" disallow="tram rail_urban rail rail_electric rail_fast ship" speed="13.89" length="43.52" shape="259.88,-0.01 259.73,42.27"/>
        <lane id="299384268#0_4" index="4" disallow="tram rail_urban rail rail_electric rail_fast ship" speed="13.89" length="43.52" shape="256.68,-0.02 256.53,42.26"/>
    </edge>
    <edge id="299384268#1" from="6225649425" to="cluster_257684519_257684745_31404741_398396926_#1more" priority="12" type="highway.primary" spreadType="center" shape="262.92,43.52 256.09,64.90">
        <lane id="299384268#1_0" index="0" disallow="tram rail_urban rail rail_electric rail_fast ship" speed="13.89" length="32.51" shape="268.64,46.64 265.27,57.21"/>
        <lane id="299384268#1_1" index="1" disallow="tram rail_urban rail rail_electric rail_fast ship" speed="13.89" length="32.51" shape="265.60,45.66 261.95,57.07"/>
        <lane id="299384268#1_2" index="2" disallow="tram rail_urban rail rail_electric rail_fast ship" speed="13.89" length="32.51" shape="262.55,44.69 258.64,56.92"/>
        <lane id="299384268#1_3" index="3" disallow="tram rail_urban rail rail_electric rail_fast ship" speed="13.89" length="32.51" shape="259.50,43.72 255.32,56.78"/>
        <lane id="299384268#1_4" index="4" disallow="tram rail_urban rail rail_electric rail_fast ship" speed="13.89" length="32.51" shape="256.45,42.74 252.01,56.64"/>
    </edge>
    <edge id="339705211#0" from="2160093491" to="2160093535" priority="12" type="highway.primary" spreadType="center" shape="178.20,951.48 179.81,942.94 182.23,929.39">
        <lane id="339705211#0_0" index="0" disallow="tram rail_urban rail rail_electric rail_fast ship" speed="16.67" length="22.46" shape="176.62,951.18 178.23,942.65 180.63,929.23"/>
        <lane id="339705211#0_1" index="1" disallow="tram rail_urban rail rail_electric rail_fast ship" speed="16.67" length="22.46" shape="179.77,951.78 181.38,943.23 183.78,929.79"/>
        <param key="ref" value="DN4"/>
    </edge>
    <edge id="339705211#1" from="2160093535" to="2351320139" priority="12" type="highway.primary" spreadType="center" shape="182.23,929.39 195.14,842.82 208.44,761.12 210.48,745.06 212.17,725.12 213.23,700.29 214.94,624.27 215.19,618.65 218.23,504.48 219.04,476.08 218.87,469.23 218.40,462.72 217.88,458.43 217.26,453.38 215.82,447.62 213.86,440.21">
        <lane id="339705211#1_0" index="0" disallow="tram rail_urban rail rail_electric rail_fast ship" speed="16.67" length="492.03" shape="180.66,929.02 193.56,842.57 206.85,760.89 208.89,744.89 210.58,725.02 211.63,700.24 213.34,624.22 213.59,618.59 216.63,504.44 217.44,476.08 217.28,469.31 216.80,462.88 216.29,458.62 215.68,453.67 214.27,448.02 212.38,440.89"/>
        <lane id="339705211#1_1" index="1" disallow="tram rail_urban rail rail_electric rail_fast ship" speed="16.67" length="492.03" shape="183.83,929.49 196.72,843.06 210.02,761.35 212.07,745.22 213.77,725.22 214.83,700.34 216.54,624.33 216.79,618.71 219.83,504.53 220.64,476.08 220.47,469.15 219.99,462.57 219.47,458.24 218.84,453.09 217.37,447.22 215.48,440.07"/>
        <param key="ref" value="DN4"/>
    </edge>
    <edge id="339705211#2" from="2351320139" to="6908633254" priority="12" type="highway.primary" spreadType="center" shape="213.86,440.21 211.48,435.03 208.89,430.48 206.98,428.11 204.47,425.70 200.92,423.47 196.04,421.13 191.72,419.87 186.25,418.56">
        <lane id="339705211#2_0" index="0" disallow="tram rail_urban rail rail_electric rail_fast ship" speed="16.67" length="37.18" shape="212.29,440.63 210.05,435.76 207.56,431.38 205.80,429.19 203.48,426.97 200.15,424.87 186.97,418.57"/>
        <lane id="339705211#2_1" index="1" disallow="tram rail_urban rail rail_electric rail_fast ship" speed="16.67" length="37.18" shape="215.20,439.29 212.90,434.29 210.22,429.57 208.16,427.03 205.46,424.44 201.70,422.06 188.05,415.53"/>
        <param key="ref" value="DN4"/>
    </edge>
    <edge id="4045771#0" from="cluster_21448876_2400144428_31404736_398401149_#2more" to="7311797096" priority="12" type="highway.primary" spreadType="center" shape="240.10,179.05 239.30,189.31">